#
# Generated from file chem.inp
# by ck2cti on Thu Aug 26 12:31:40 2021
#
# Transport data from file tran.dat.

units(length = "cm", time = "s", quantity = "mol", act_energy = "cal/mol")


ideal_gas(name = "gas",
      elements = " O  H  C  N  Ar ",
      species = """ H2  H  O  O2  OH  H2O  HO2  H2O2  CH  CH2 
                   CH2*  CH3  CH4  CO  CO2  HCO  CH2O  CH3O  C2H2  H2CC 
                   C2H3  C2H4  C2H5  C2H6  HCCO  CH2CO  CH2CHO  CH3CHO  aC3H5  C3H6 
                   nC3H7  N2 """,
      reactions = "all",
      transport = "Mix",
      initial_state = state(temperature = 300.0,
                        pressure = OneAtm)    )



#-------------------------------------------------------------------------------
#  Species data 
#-------------------------------------------------------------------------------

species(name = "H2",
    atoms = " H:2 ",
    thermo = (
       NASA( [  200.00,  1000.00], [  2.344331120E+00,   7.980520750E-03, 
               -1.947815100E-05,   2.015720940E-08,  -7.376117610E-12,
               -9.179351730E+02,   6.830102380E-01] ),
       NASA( [ 1000.00,  3500.00], [  3.337279200E+00,  -4.940247310E-05, 
                4.994567780E-07,  -1.795663940E-10,   2.002553760E-14,
               -9.501589220E+02,  -3.205023310E+00] )
             ),
    transport = gas_transport(
                     geom = "linear",
                     diam = 2.92,
                     well_depth = 38,
                     polar = 0.79,
                     rot_relax = 280),
    note = "TPIS78"
       )

species(name = "H",
    atoms = " H:1 ",
    thermo = (
       NASA( [  200.00,  1000.00], [  2.500000000E+00,   7.053328190E-13, 
               -1.995919640E-15,   2.300816320E-18,  -9.277323320E-22,
                2.547365990E+04,  -4.466828530E-01] ),
       NASA( [ 1000.00,  3500.00], [  2.500000010E+00,  -2.308429730E-11, 
                1.615619480E-14,  -4.735152350E-18,   4.981973570E-22,
                2.547365990E+04,  -4.466829140E-01] )
             ),
    transport = gas_transport(
                     geom = "atom",
                     diam = 2.05,
                     well_depth = 145),
    note = "L 7/88"
       )

species(name = "O",
    atoms = " O:1 ",
    thermo = (
       NASA( [  200.00,  1000.00], [  3.168267100E+00,  -3.279318840E-03, 
                6.643063960E-06,  -6.128066240E-09,   2.112659710E-12,
                2.912225920E+04,   2.051933460E+00] ),
       NASA( [ 1000.00,  3500.00], [  2.569420780E+00,  -8.597411370E-05, 
                4.194845890E-08,  -1.001777990E-11,   1.228336910E-15,
                2.921757910E+04,   4.784338640E+00] )
             ),
    transport = gas_transport(
                     geom = "atom",
                     diam = 2.75,
                     well_depth = 80),
    note = "L 1/90"
       )

species(name = "O2",
    atoms = " O:2 ",
    thermo = (
       NASA( [  200.00,  1000.00], [  3.782456360E+00,  -2.996734160E-03, 
                9.847302010E-06,  -9.681295090E-09,   3.243728370E-12,
               -1.063943560E+03,   3.657675730E+00] ),
       NASA( [ 1000.00,  3500.00], [  3.282537840E+00,   1.483087540E-03, 
               -7.579666690E-07,   2.094705550E-10,  -2.167177940E-14,
               -1.088457720E+03,   5.453231290E+00] )
             ),
    transport = gas_transport(
                     geom = "linear",
                     diam = 3.458,
                     well_depth = 107.4,
                     polar = 1.6,
                     rot_relax = 3.8),
    note = "TPIS89"
       )

species(name = "OH",
    atoms = " O:1  H:1 ",
    thermo = (
       NASA( [  200.00,  1000.00], [  3.992015430E+00,  -2.401317520E-03, 
                4.617938410E-06,  -3.881133330E-09,   1.364114700E-12,
                3.615080560E+03,  -1.039254580E-01] ),
       NASA( [ 1000.00,  3500.00], [  3.092887670E+00,   5.484297160E-04, 
                1.265052280E-07,  -8.794615560E-11,   1.174123760E-14,
                3.858657000E+03,   4.476696100E+00] )
             ),
    transport = gas_transport(
                     geom = "linear",
                     diam = 2.75,
                     well_depth = 80),
    note = "RUS 78"
       )

species(name = "H2O",
    atoms = " H:2  O:1 ",
    thermo = (
       NASA( [  200.00,  1000.00], [  4.198640560E+00,  -2.036434100E-03, 
                6.520402110E-06,  -5.487970620E-09,   1.771978170E-12,
               -3.029372670E+04,  -8.490322080E-01] ),
       NASA( [ 1000.00,  3500.00], [  3.033992490E+00,   2.176918040E-03, 
               -1.640725180E-07,  -9.704198700E-11,   1.682009920E-14,
               -3.000429710E+04,   4.966770100E+00] )
             ),
    transport = gas_transport(
                     geom = "nonlinear",
                     diam = 2.605,
                     well_depth = 572.4,
                     dipole = 1.844,
                     rot_relax = 4),
    note = "L 8/89"
       )

species(name = "HO2",
    atoms = " H:1  O:2 ",
    thermo = (
       NASA( [  200.00,  1000.00], [  4.301798010E+00,  -4.749120510E-03, 
                2.115828910E-05,  -2.427638940E-08,   9.292251240E-12,
                2.948080400E+02,   3.716662450E+00] ),
       NASA( [ 1000.00,  3500.00], [  4.017210900E+00,   2.239820130E-03, 
               -6.336581500E-07,   1.142463700E-10,  -1.079085350E-14,
                1.118567130E+02,   3.785102150E+00] )
             ),
    transport = gas_transport(
                     geom = "nonlinear",
                     diam = 3.458,
                     well_depth = 107.4,
                     rot_relax = 1),
    note = "L 5/89"
       )

species(name = "H2O2",
    atoms = " H:2  O:2 ",
    thermo = (
       NASA( [  200.00,  1000.00], [  4.276112690E+00,  -5.428224170E-04, 
                1.673357010E-05,  -2.157708130E-08,   8.624543630E-12,
               -1.770258210E+04,   3.435050740E+00] ),
       NASA( [ 1000.00,  3500.00], [  4.165002850E+00,   4.908316940E-03, 
               -1.901392250E-06,   3.711859860E-10,  -2.879083050E-14,
               -1.786178770E+04,   2.916156620E+00] )
             ),
    transport = gas_transport(
                     geom = "nonlinear",
                     diam = 3.458,
                     well_depth = 107.4,
                     rot_relax = 3.8),
    note = "L 7/88"
       )

species(name = "CH",
    atoms = " C:1  H:1 ",
    thermo = (
       NASA( [  200.00,  1000.00], [  3.489816650E+00,   3.238355410E-04, 
               -1.688990650E-06,   3.162173270E-09,  -1.406090670E-12,
                7.079729340E+04,   2.084011080E+00] ),
       NASA( [ 1000.00,  3500.00], [  2.878464730E+00,   9.709136810E-04, 
                1.444456550E-07,  -1.306878490E-10,   1.760793830E-14,
                7.101243640E+04,   5.484979990E+00] )
             ),
    transport = gas_transport(
                     geom = "linear",
                     diam = 2.75,
                     well_depth = 80),
    note = "TPIS79"
       )

species(name = "CH2",
    atoms = " C:1  H:2 ",
    thermo = (
       NASA( [  200.00,  1000.00], [  3.762678670E+00,   9.688721430E-04, 
                2.794898410E-06,  -3.850911530E-09,   1.687417190E-12,
                4.600404010E+04,   1.562531850E+00] ),
       NASA( [ 1000.00,  3500.00], [  2.874101130E+00,   3.656392920E-03, 
               -1.408945970E-06,   2.601795490E-10,  -1.877275670E-14,
                4.626360400E+04,   6.171193240E+00] )
             ),
    transport = gas_transport(
                     geom = "linear",
                     diam = 3.8,
                     well_depth = 144),
    note = "L S/93"
       )

species(name = "CH2*",
    atoms = " C:1  H:2 ",
    thermo = (
       NASA( [  200.00,  1000.00], [  4.198604110E+00,  -2.366614190E-03, 
                8.232962200E-06,  -6.688159810E-09,   1.943147370E-12,
                5.049681630E+04,  -7.691189670E-01] ),
       NASA( [ 1000.00,  3500.00], [  2.292038420E+00,   4.655886370E-03, 
               -2.011919470E-06,   4.179060000E-10,  -3.397163650E-14,
                5.092599970E+04,   8.626501690E+00] )
             ),
    transport = gas_transport(
                     geom = "linear",
                     diam = 3.8,
                     well_depth = 144),
    note = "L S/93"
       )

species(name = "CH3",
    atoms = " C:1  H:3 ",
    thermo = (
       NASA( [  200.00,  1000.00], [  3.673590400E+00,   2.010951750E-03, 
                5.730218560E-06,  -6.871174250E-09,   2.543857340E-12,
                1.644499880E+04,   1.604564330E+00] ),
       NASA( [ 1000.00,  3500.00], [  2.285717720E+00,   7.239900370E-03, 
               -2.987143480E-06,   5.956846440E-10,  -4.671543940E-14,
                1.677558430E+04,   8.480071790E+00] )
             ),
    transport = gas_transport(
                     geom = "linear",
                     diam = 3.8,
                     well_depth = 144),
    note = "L11/89"
       )

species(name = "CH4",
    atoms = " C:1  H:4 ",
    thermo = (
       NASA( [  200.00,  1000.00], [  5.149876130E+00,  -1.367097880E-02, 
                4.918005990E-05,  -4.847430260E-08,   1.666939560E-11,
               -1.024664760E+04,  -4.641303760E+00] ),
       NASA( [ 1000.00,  3500.00], [  7.485149500E-02,   1.339094670E-02, 
               -5.732858090E-06,   1.222925350E-09,  -1.018152300E-13,
               -9.468344590E+03,   1.843731800E+01] )
             ),
    transport = gas_transport(
                     geom = "nonlinear",
                     diam = 3.746,
                     well_depth = 141.4,
                     polar = 2.6,
                     rot_relax = 13),
    note = "L 8/88"
       )

species(name = "CO",
    atoms = " C:1  O:1 ",
    thermo = (
       NASA( [  200.00,  1000.00], [  3.579533470E+00,  -6.103536800E-04, 
                1.016814330E-06,   9.070058840E-10,  -9.044244990E-13,
               -1.434408600E+04,   3.508409280E+00] ),
       NASA( [ 1000.00,  3500.00], [  2.715185610E+00,   2.062527430E-03, 
               -9.988257710E-07,   2.300530080E-10,  -2.036477160E-14,
               -1.415187240E+04,   7.818687720E+00] )
             ),
    transport = gas_transport(
                     geom = "linear",
                     diam = 3.65,
                     well_depth = 98.1,
                     polar = 1.95,
                     rot_relax = 1.8),
    note = "TPIS79"
       )

species(name = "CO2",
    atoms = " C:1  O:2 ",
    thermo = (
       NASA( [  200.00,  1000.00], [  2.356773520E+00,   8.984596770E-03, 
               -7.123562690E-06,   2.459190220E-09,  -1.436995480E-13,
               -4.837196970E+04,   9.901052220E+00] ),
       NASA( [ 1000.00,  3500.00], [  3.857460290E+00,   4.414370260E-03, 
               -2.214814040E-06,   5.234901880E-10,  -4.720841640E-14,
               -4.875916600E+04,   2.271638060E+00] )
             ),
    transport = gas_transport(
                     geom = "linear",
                     diam = 3.763,
                     well_depth = 244,
                     polar = 2.65,
                     rot_relax = 2.1),
    note = "L 7/88"
       )

species(name = "HCO",
    atoms = " H:1  C:1  O:1 ",
    thermo = (
       NASA( [  200.00,  1000.00], [  4.221185840E+00,  -3.243925320E-03, 
                1.377994460E-05,  -1.331440930E-08,   4.337688650E-12,
                3.839564960E+03,   3.394372430E+00] ),
       NASA( [ 1000.00,  3500.00], [  2.772174380E+00,   4.956955260E-03, 
               -2.484456130E-06,   5.891617780E-10,  -5.335087110E-14,
                4.011918150E+03,   9.798344920E+00] )
             ),
    transport = gas_transport(
                     geom = "nonlinear",
                     diam = 3.59,
                     well_depth = 498),
    note = "L12/89"
       )

species(name = "CH2O",
    atoms = " H:2  C:1  O:1 ",
    thermo = (
       NASA( [  200.00,  1000.00], [  4.793723150E+00,  -9.908333690E-03, 
                3.732200080E-05,  -3.792852610E-08,   1.317726520E-11,
               -1.430895670E+04,   6.028129000E-01] ),
       NASA( [ 1000.00,  3500.00], [  1.760690080E+00,   9.200000820E-03, 
               -4.422588130E-06,   1.006412120E-09,  -8.838556400E-14,
               -1.399583230E+04,   1.365632300E+01] )
             ),
    transport = gas_transport(
                     geom = "nonlinear",
                     diam = 3.59,
                     well_depth = 498,
                     rot_relax = 2),
    note = "L 8/88"
       )

species(name = "CH3O",
    atoms = " C:1  H:3  O:1 ",
    thermo = (
       NASA( [  300.00,  1000.00], [  2.106204000E+00,   7.216595000E-03, 
                5.338472000E-06,  -7.377636000E-09,   2.075610000E-12,
                9.786011000E+02,   1.315217700E+01] ),
       NASA( [ 1000.00,  3000.00], [  3.770799000E+00,   7.871497000E-03, 
               -2.656384000E-06,   3.944431000E-10,  -2.112616000E-14,
                1.278325200E+02,   2.929575000E+00] )
             ),
    transport = gas_transport(
                     geom = "nonlinear",
                     diam = 3.69,
                     well_depth = 417,
                     dipole = 1.7,
                     rot_relax = 2),
    note = "121686"
       )

species(name = "C2H2",
    atoms = " C:2  H:2 ",
    thermo = (
       NASA( [  200.00,  1000.00], [  8.086810940E-01,   2.336156290E-02, 
               -3.551718150E-05,   2.801524370E-08,  -8.500729740E-12,
                2.642898070E+04,   1.393970510E+01] ),
       NASA( [ 1000.00,  3500.00], [  4.147569640E+00,   5.961666640E-03, 
               -2.372948520E-06,   4.674121710E-10,  -3.612352130E-14,
                2.593599920E+04,  -1.230281210E+00] )
             ),
    transport = gas_transport(
                     geom = "linear",
                     diam = 4.1,
                     well_depth = 209,
                     rot_relax = 2.5),
    note = "L 1/91"
       )

species(name = "H2CC",
    atoms = " H:2  C:2 ",
    thermo = (
       NASA( [  200.00,  1000.00], [  3.281548300E+00,   6.976479100E-03, 
               -2.385524400E-06,  -1.210443200E-09,   9.818954500E-13,
                4.862179400E+04,   5.920391000E+00] ),
       NASA( [ 1000.00,  6000.00], [  4.278034000E+00,   4.756280400E-03, 
               -1.630100900E-06,   2.546280600E-10,  -1.488637900E-14,
                4.831668800E+04,   6.402370100E-01] )
             ),
    transport = gas_transport(
                     geom = "nonlinear",
                     diam = 4.1,
                     well_depth = 209,
                     rot_relax = 2.5),
    note = "L12/89"
       )

species(name = "C2H3",
    atoms = " C:2  H:3 ",
    thermo = (
       NASA( [  200.00,  1000.00], [  3.212466450E+00,   1.514791620E-03, 
                2.592094120E-05,  -3.576578470E-08,   1.471508730E-11,
                3.485984680E+04,   8.510540250E+00] ),
       NASA( [ 1000.00,  3500.00], [  3.016724000E+00,   1.033022920E-02, 
               -4.680823490E-06,   1.017632880E-09,  -8.626070410E-14,
                3.461287390E+04,   7.787323780E+00] )
             ),
    transport = gas_transport(
                     geom = "nonlinear",
                     diam = 4.1,
                     well_depth = 209,
                     rot_relax = 1),
    note = "L 2/92"
       )

species(name = "C2H4",
    atoms = " C:2  H:4 ",
    thermo = (
       NASA( [  200.00,  1000.00], [  3.959201480E+00,  -7.570522470E-03, 
                5.709902920E-05,  -6.915887530E-08,   2.698843730E-11,
                5.089775930E+03,   4.097330960E+00] ),
       NASA( [ 1000.00,  3500.00], [  2.036111160E+00,   1.464541510E-02, 
               -6.710779150E-06,   1.472229230E-09,  -1.257060610E-13,
                4.939886140E+03,   1.030536930E+01] )
             ),
    transport = gas_transport(
                     geom = "nonlinear",
                     diam = 3.971,
                     well_depth = 280.8,
                     rot_relax = 1.5),
    note = "L 1/91"
       )

species(name = "C2H5",
    atoms = " C:2  H:5 ",
    thermo = (
       NASA( [  200.00,  1000.00], [  4.306465680E+00,  -4.186588920E-03, 
                4.971428070E-05,  -5.991266060E-08,   2.305090040E-11,
                1.284162650E+04,   4.707209240E+00] ),
       NASA( [ 1000.00,  3500.00], [  1.954656420E+00,   1.739727220E-02, 
               -7.982066680E-06,   1.752176890E-09,  -1.496415760E-13,
                1.285752000E+04,   1.346243430E+01] )
             ),
    transport = gas_transport(
                     geom = "nonlinear",
                     diam = 4.302,
                     well_depth = 252.3,
                     rot_relax = 1.5),
    note = "L12/92"
       )

species(name = "C2H6",
    atoms = " C:2  H:6 ",
    thermo = (
       NASA( [  200.00,  1000.00], [  4.291424920E+00,  -5.501542700E-03, 
                5.994382880E-05,  -7.084662850E-08,   2.686857710E-11,
               -1.152220550E+04,   2.666823160E+00] ),
       NASA( [ 1000.00,  3500.00], [  1.071881500E+00,   2.168526770E-02, 
               -1.002560670E-05,   2.214120010E-09,  -1.900028900E-13,
               -1.142639320E+04,   1.511561070E+01] )
             ),
    transport = gas_transport(
                     geom = "nonlinear",
                     diam = 4.302,
                     well_depth = 252.3,
                     rot_relax = 1.5),
    note = "L 8/88"
       )

species(name = "HCCO",
    atoms = " H:1  C:2  O:1 ",
    thermo = (
       NASA( [  300.00,  1000.00], [  2.251721400E+00,   1.765502100E-02, 
               -2.372910100E-05,   1.727575900E-08,  -5.066481100E-12,
                2.005944900E+04,   1.249041700E+01] ),
       NASA( [ 1000.00,  4000.00], [  5.628205800E+00,   4.085340100E-03, 
               -1.593454700E-06,   2.862605200E-10,  -1.940783200E-14,
                1.932721500E+04,  -3.930259500E+00] )
             ),
    transport = gas_transport(
                     geom = "nonlinear",
                     diam = 2.5,
                     well_depth = 150,
                     rot_relax = 1),
    note = "SRIC91"
       )

species(name = "CH2CO",
    atoms = " C:2  H:2  O:1 ",
    thermo = (
       NASA( [  200.00,  1000.00], [  2.135836300E+00,   1.811887210E-02, 
               -1.739474740E-05,   9.343975680E-09,  -2.014576150E-12,
               -7.042918040E+03,   1.221564800E+01] ),
       NASA( [ 1000.00,  3500.00], [  4.511297320E+00,   9.003597450E-03, 
               -4.169396350E-06,   9.233458820E-10,  -7.948382010E-14,
               -7.551053110E+03,   6.322472050E-01] )
             ),
    transport = gas_transport(
                     geom = "nonlinear",
                     diam = 3.97,
                     well_depth = 436,
                     rot_relax = 2),
    note = "L 5/90"
       )

species(name = "CH2CHO",
    atoms = " O:1  H:3  C:2 ",
    thermo = (
       NASA( [  300.00,  1000.00], [  3.409062400E+00,   1.073857400E-02, 
                1.891492500E-06,   7.158583100E-09,   2.867385100E-12,
                1.521476600E+03,   9.571453500E+00] ),
       NASA( [ 1000.00,  5000.00], [  5.975669900E+00,   8.130591400E-03, 
               -2.743624500E-06,   4.070304100E-10,  -2.176017100E-14,
                4.903217800E+02,  -5.032087900E+00] )
             ),
    transport = gas_transport(
                     geom = "nonlinear",
                     diam = 3.97,
                     well_depth = 436,
                     rot_relax = 2),
    note = "T04/83"
       )

species(name = "CH3CHO",
    atoms = " C:2  H:4  O:1 ",
    thermo = (
       NASA( [  200.00,  1000.00], [  4.729459500E+00,  -3.193285800E-03, 
                4.753492100E-05,  -5.745861100E-08,   2.193111200E-11,
               -2.157287800E+04,   4.103015900E+00] ),
       NASA( [ 1000.00,  6000.00], [  5.404110800E+00,   1.172305900E-02, 
               -4.226313700E-06,   6.837245100E-10,  -4.098486300E-14,
               -2.259312200E+04,  -3.480791700E+00] )
             ),
    transport = gas_transport(
                     geom = "nonlinear",
                     diam = 3.97,
                     well_depth = 436,
                     rot_relax = 2),
    note = "L 8/88"
       )

species(name = "aC3H5",
    atoms = " C:3  H:5 ",
    thermo = (
       NASA( [  300.00,  1000.00], [  1.363183500E+00,   1.981382100E-02, 
                1.249706000E-05,  -3.335555500E-08,   1.584657100E-11,
                1.924562900E+04,   1.717321400E+01] ),
       NASA( [ 1000.00,  3000.00], [  6.500787700E+00,   1.432473100E-02, 
               -5.678163200E-06,   1.108080100E-09,  -9.036388700E-14,
                1.748244900E+04,  -1.124305000E+01] )
             ),
    transport = gas_transport(
                     geom = "nonlinear",
                     diam = 4.982,
                     well_depth = 266.8,
                     rot_relax = 1),
    note = "PD5/98"
       )

species(name = "C3H6",
    atoms = " C:3  H:6 ",
    thermo = (
       NASA( [  300.00,  1000.00], [  1.493307000E+00,   2.092518000E-02, 
                4.486794000E-06,  -1.668912000E-08,   7.158146000E-12,
                1.074826000E+03,   1.614534000E+01] ),
       NASA( [ 1000.00,  5000.00], [  6.732257000E+00,   1.490834000E-02, 
               -4.949899000E-06,   7.212022000E-10,  -3.766204000E-14,
               -9.235703000E+02,  -1.331335000E+01] )
             ),
    transport = gas_transport(
                     geom = "nonlinear",
                     diam = 4.982,
                     well_depth = 266.8,
                     rot_relax = 1),
    note = "120186"
       )

species(name = "nC3H7",
    atoms = " C:3  H:7 ",
    thermo = (
       NASA( [  300.00,  1000.00], [  1.049117300E+00,   2.600897300E-02, 
                2.354251600E-06,  -1.959513200E-08,   9.372020700E-12,
                1.031234600E+04,   2.113603400E+01] ),
       NASA( [ 1000.00,  3000.00], [  7.709747900E+00,   1.603148500E-02, 
               -5.272023800E-06,   7.588835200E-10,  -3.886271900E-14,
                7.976223600E+03,  -1.551529700E+01] )
             ),
    transport = gas_transport(
                     geom = "nonlinear",
                     diam = 4.982,
                     well_depth = 266.8,
                     rot_relax = 1),
    note = "P11/94"
       )

species(name = "N2",
    atoms = " N:2 ",
    thermo = (
       NASA( [  300.00,  1000.00], [  3.298677000E+00,   1.408240400E-03, 
               -3.963222000E-06,   5.641515000E-09,  -2.444854000E-12,
               -1.020899900E+03,   3.950372000E+00] ),
       NASA( [ 1000.00,  5000.00], [  2.926640000E+00,   1.487976800E-03, 
               -5.684760000E-07,   1.009703800E-10,  -6.753351000E-15,
               -9.227977000E+02,   5.980528000E+00] )
             ),
    transport = gas_transport(
                     geom = "linear",
                     diam = 3.621,
                     well_depth = 97.53,
                     polar = 1.76,
                     rot_relax = 4),
    note = "121286"
       )



#-------------------------------------------------------------------------------
#  Reaction data 
#-------------------------------------------------------------------------------

#  Reaction 1
# R1 
#   GRI1.2 
reaction(  "H + O2 <=> O + OH",  [8.30000E+13, 0, 14413])

#  Reaction 2
# R2 
#   GRI1.2 
reaction(  "O + H2 <=> H + OH",  [5.00000E+04, 2.67, 6290])

#  Reaction 3
# R3 
#   GRI1.2 
reaction(  "OH + H2 <=> H + H2O",  [2.16000E+08, 1.51, 3430])

#  Reaction 4
# R4 
#   GRI1.2 
reaction(  "OH + OH <=> O + H2O",  [3.57000E+04, 2.4, -2110])

#  Reaction 5
# R5 
#   GRI1.2 
three_body_reaction( "H + H + M <=> H2 + M",  [1.00000E+18, -1, 0],
         efficiencies = " C2H2:3  C2H4:3  C2H6:3  CH4:2  CO2:0  H2:0  H2O:0 ")

#  Reaction 6
# R6 
#   GRI1.2  
reaction(  "H + H + H2 <=> H2 + H2",  [9.00000E+16, -0.6, 0])

#  Reaction 7
# R7 
#   GRI1.2 
reaction(  "H + H + H2O <=> H2 + H2O",  [6.00000E+19, -1.25, 0])

#  Reaction 8
# R8 
#   GRI1.2 
reaction(  "H + H + CO2 <=> H2 + CO2",  [5.50000E+20, -2, 0])

#  Reaction 9
# R9 
#   GRI1.2 
three_body_reaction( "H + OH + M <=> H2O + M",  [2.20000E+22, -2, 0],
         efficiencies = " C2H2:3  C2H4:3  C2H6:3  CH4:2  H2:0.73  H2O:3.65 ")

#  Reaction 10
# R10 
#   GRI1.2 
three_body_reaction( "O + H + M <=> OH + M",  [5.00000E+17, -1, 0],
         efficiencies = " C2H2:3  C2H4:3  C2H6:3  CH4:2  CO:1.5  CO2:2  H2:2  H2O:6 ")

#  Reaction 11
# R11 
#   GRI1.2 
three_body_reaction( "O + O + M <=> O2 + M",  [1.20000E+17, -1, 0],
         efficiencies = " C2H2:3  C2H4:3  C2H6:3  CH4:2  CO:1.75  CO2:3.6  H2:2.4  H2O:15.4 ")

#  Reaction 12
# R12 
#   GRI1.2 
three_body_reaction( "H + O2 + M <=> HO2 + M",  [2.80000E+18, -0.86, 0],
         efficiencies = " C2H2:3  C2H4:3  C2H6:1.5  CO:0.75  CO2:1.5  H2O:0  N2:0  O2:0 ")

#  Reaction 13
# R13 
#   GRI1.2 
reaction(  "H + O2 + O2 <=> HO2 + O2",  [3.00000E+20, -1.72, 0])

#  Reaction 14
# R14 
#   GRI-Mech 1.2a 
reaction(  "H + O2 + H2O <=> HO2 + H2O",  [1.65200E+19, -0.76, 0])

#  Reaction 15
# R15 
#   New Stanf. measur. 
reaction(  "H + O2 + N2 <=> HO2 + N2",  [2.60000E+19, -1.24, 0])

#  Reaction 16
# R16 
#   GRI1.2 
falloff_reaction( "OH + OH (+ M) <=> H2O2 (+ M)",
         kf = [7.40000E+13, -0.37, 0],
         kf0   = [2.30000E+18, -0.9, -1700],
         falloff = Troe(A = 0.7346, T3 = 94, T1 = 1756, T2 = 5182),
         efficiencies = " C2H2:3  C2H4:3  C2H6:3  CH4:2  CO:1.5  CO2:2  H2:2  H2O:6 ")

#  Reaction 17
# R17 
#   GRI1.2 
reaction(  "HO2 + H <=> O + H2O",  [3.97000E+12, 0, 671])

#  Reaction 18
# R18 
#   Mueller et al. 
reaction(  "HO2 + H <=> O2 + H2",  [1.66000E+13, 0, 820])

#  Reaction 19
# R19 
#   Mueller et al. 
reaction(  "HO2 + H <=> OH + OH",  [7.08000E+13, 0, 300])

#  Reaction 20
# R20 
#   GRI1.2 
reaction(  "HO2 + O <=> OH + O2",  [2.00000E+13, 0, 0])

#  Reaction 21
# R21 
#   GRI-Mech 1.2a 
reaction(  "HO2 + OH <=> O2 + H2O",  [4.64000E+13, 0, -500])

#  Reaction 22
# R22 
#   GRI1.2 
reaction(  "HO2 + HO2 <=> O2 + H2O2",  [1.30000E+11, 0, -1630],
         options = ["duplicate"])

#  Reaction 23
# R23 
#   GRI1.2 
reaction(  "HO2 + HO2 <=> O2 + H2O2",  [4.20000E+14, 0, 12000],
         options = ["duplicate"])

#  Reaction 24
# R24 
#   GRI1.2 
reaction(  "H2O2 + H <=> HO2 + H2",  [1.21000E+07, 2, 5200])

#  Reaction 25
# R25 
#   GRI1.2 
reaction(  "H2O2 + H <=> OH + H2O",  [1.00000E+13, 0, 3600])

#  Reaction 26
# R26 
#   GRI1.2 
reaction(  "H2O2 + O <=> OH + HO2",  [9.63000E+06, 2, 4000])

#  Reaction 27
# R27 
#   GRI1.2 
reaction(  "H2O2 + OH <=> HO2 + H2O",  [1.75000E+12, 0, 320],
         options = ["duplicate"])

#  Reaction 28
# R28 
#   GRI1.2 
reaction(  "H2O2 + OH <=> HO2 + H2O",  [5.80000E+14, 0, 9560],
         options = ["duplicate"])

#  Reaction 29
# R29 
#   GRI1.2 
three_body_reaction( "CO + O + M <=> CO2 + M",  [6.02000E+14, 0, 3000],
         efficiencies = " C2H2:3  C2H4:3  C2H6:3  CH4:2  CO:1.5  CO2:3.5  H2:2  H2O:6  O2:6 ")

#  Reaction 30
# R30 
#   GRI1.2 
reaction(  "CO + OH <=> CO2 + H",  [4.76000E+07, 1.228, 70])

#  Reaction 31
# R31 
#   GRI1.2 
falloff_reaction( "CO + H2 (+ M) <=> CH2O (+ M)",
         kf = [4.30000E+07, 1.5, 79600],
         kf0   = [5.07000E+27, -3.42, 84350],
         falloff = Troe(A = 0.932, T3 = 197, T1 = 1540, T2 = 10300),
         efficiencies = " C2H2:3  C2H4:3  C2H6:3  CH4:2  CO:1.5  CO2:2  H2:2  H2O:6 ")

#  Reaction 32
# R32 
#   GRI1.2 
reaction(  "CO + O2 <=> CO2 + O",  [2.50000E+12, 0, 47800])

#  Reaction 33
# R33 
#   GRI1.2 
reaction(  "CO + HO2 <=> CO2 + OH",  [1.50000E+14, 0, 23600])

#  Reaction 34
# R34 
#   GRI1.2 
reaction(  "CH + O <=> CO + H",  [5.70000E+13, 0, 0])

#  Reaction 35
# R35 
#   GRI1.2 
reaction(  "CH + OH <=> HCO + H",  [3.00000E+13, 0, 0])

#  Reaction 36
# R36 
#   GRI1.2 
reaction(  "CH + H2 <=> CH2 + H",  [1.10700E+08, 1.79, 1670])

#  Reaction 37
# R37 
#   GRI1.2 
reaction(  "CH + H2O <=> CH2O + H",  [5.71000E+12, 0, -755])

#  Reaction 38
# R38 
#   GRI1.2 
reaction(  "CH + O2 <=> HCO + O",  [3.30000E+13, 0, 0])

#  Reaction 39
# R39 
#   GRI1.2 
falloff_reaction( "CH + CO (+ M) <=> HCCO (+ M)",
         kf = [5.00000E+13, 0, 0],
         kf0   = [2.69000E+28, -3.74, 1936],
         falloff = Troe(A = 0.5757, T3 = 237, T1 = 1652, T2 = 5069),
         efficiencies = " C2H2:3  C2H4:3  C2H6:3  CH4:2  CO:1.5  CO2:2  H2:2  H2O:6 ")

#  Reaction 40
# R40 
#   GRI1.2 
reaction(  "CH + CO2 <=> HCO + CO",  [3.40000E+12, 0, 690])

#  Reaction 41
# R41 
#   GRI1.2 
falloff_reaction( "HCO + H (+ M) <=> CH2O (+ M)",
         kf = [1.09000E+12, 0.48, -260],
         kf0   = [1.35000E+24, -2.57, 1425],
         falloff = Troe(A = 0.7824, T3 = 271, T1 = 2755, T2 = 6570),
         efficiencies = " C2H2:3  C2H4:3  C2H6:3  CH4:2  CO:1.5  CO2:2  H2:2  H2O:6 ")

#  Reaction 42
# R42 
#   GRI1.2 
reaction(  "HCO + H <=> CO + H2",  [7.34000E+13, 0, 0])

#  Reaction 43
# R43 
#   GRI1.2 
reaction(  "HCO + O <=> CO + OH",  [3.00000E+13, 0, 0])

#  Reaction 44
# R44 
#   GRI1.2 
reaction(  "HCO + O <=> CO2 + H",  [3.00000E+13, 0, 0])

#  Reaction 45
# R45 
#   GRI1.2 
reaction(  "HCO + OH <=> CO + H2O",  [5.00000E+13, 0, 0])

#  Reaction 46
# R46 
#   GRI1.2 beta(H2O)=18 
three_body_reaction( "HCO + M <=> CO + H + M",  [1.87000E+17, -1, 17000],
         efficiencies = " C2H2:3  C2H4:3  C2H6:3  CH4:2  CO:1.5  CO2:2  H2:2  H2O:6 ")

#  Reaction 47
# R47 
#   GRI1.2 
reaction(  "HCO + O2 <=> CO + HO2",  [7.60000E+12, 0, 400])

#  Reaction 48
# R48 
#   GRI1.2 
falloff_reaction( "CH2 + H (+ M) <=> CH3 (+ M)",
         kf = [2.50000E+16, -0.8, 0],
         kf0   = [3.20000E+27, -3.14, 1230],
         falloff = Troe(A = 0.68, T3 = 78, T1 = 1995, T2 = 5590),
         efficiencies = " C2H2:3  C2H4:3  C2H6:3  CH4:2  CO:1.5  CO2:2  H2:2  H2O:6 ")

#  Reaction 49
# R49 
#   GRI1.2 
reaction(  "CH2 + H2 <=> H + CH3",  [5.00000E+05, 2, 7230])

#  Reaction 50
# R50 
#   GRI1.2 
reaction(  "CH2 + O <=> HCO + H",  [8.00000E+13, 0, 0])

#  Reaction 51
# R51 
#   GRI1.2 alpha = 0.8 